data_New_Crystal_31792
_audit_creation_method         'generated by RubyCrystal 1.0.0'
_cell_length_a                  17.704
_cell_length_b                   18.54
_cell_length_c                   6.495
_cell_angle_alpha                 90.0
_cell_angle_beta                  90.0
_cell_angle_gamma                 90.0

_symmetry_space_group_name_H-M 'F d d 2'
_symmetry_Int_Tables_number    43
loop_
_symmetry_equiv_pos_as_xyz
'x+1/4, -y+1/4, z+1/4'
'-x+1/4, y+1/4, z+1/4'
'-x, -y, z'
'x, y, z'
'x+1/4, -y+3/4, z+3/4'
'-x+1/4, y+3/4, z+3/4'
'-x, -y+1/2, z+1/2'
'x, y+1/2, z+1/2'
'x+3/4, -y+1/4, z+3/4'
'-x+3/4, y+1/4, z+3/4'
'-x+1/2, -y, z+1/2'
'x+1/2, y, z+1/2'
'x+3/4, -y+3/4, z+1/4'
'-x+3/4, y+3/4, z+1/4'
'-x+1/2, -y+1/2, z'
'x+1/2, y+1/2, z'

loop_
_atom_site_label
_atom_site_type_symbol
_atom_site_wyckoff_letter
_atom_site_occupancy
_atom_site_fract_x
_atom_site_fract_y
_atom_site_fract_z
   Li   Li    b    1.0 0.21741  0.04133  0.62911
   Si   Si    a    0.8     0.0      0.0      0.0
   Al   Al    a    0.2     0.0      0.0      0.0
   Si   Si    b    0.8 0.14928  0.21576  0.62275
   Al   Al    b    0.2 0.14928  0.21576  0.62275
   Si   Si    b    0.3 0.03634  0.09378  0.61732
   Al   Al    b    0.7 0.03634  0.09378  0.61732
    O    O    b    1.0 0.01118  0.07259  0.86229
    O    O    b    1.0 0.06507  0.18149   0.6057
    O    O    b    1.0  0.1047  0.03534  0.52832
    O    O    b    1.0  0.2091  0.15562  0.70626
    O    O    b    1.0 0.17395  0.24112  0.39022
    O    O    b    1.0 0.04165  0.20075  0.11604
    H    H    b    1.0  0.0409   0.1595   0.0211
    H    H    b    1.0  0.0909   0.1973   0.1579

