data_New_Crystal_24379
_audit_creation_method         'generated by RubyCrystal 1.0.0'
_cell_length_a                  2.8608
_cell_length_b                  2.8608
_cell_length_c                  2.8608
_cell_angle_alpha                 90.0
_cell_angle_beta                  90.0
_cell_angle_gamma                 90.0

_symmetry_space_group_name_H-M 'I m -3 m'
_symmetry_Int_Tables_number    229
loop_
_symmetry_equiv_pos_as_xyz
'z, y, -x'
'y, x, -z'
'x, z, -y'
'z, x, -y'
'y, z, -x'
'x, y, -z'
'z, -y, x'
'y, -x, z'
'x, -z, y'
'z, -x, y'
'y, -z, x'
'x, -y, z'
'-z, y, x'
'-y, x, z'
'-x, z, y'
'-z, x, y'
'-y, z, x'
'-x, y, z'
'-z, -y, -x'
'-y, -x, -z'
'-x, -z, -y'
'-z, -x, -y'
'-y, -z, -x'
'-x, -y, -z'
'-z, -y, x'
'-y, -x, z'
'-x, -z, y'
'-z, -x, y'
'-y, -z, x'
'-x, -y, z'
'-z, y, -x'
'-y, x, -z'
'-x, z, -y'
'-z, x, -y'
'-y, z, -x'
'-x, y, -z'
'z, -y, -x'
'y, -x, -z'
'x, -z, -y'
'z, -x, -y'
'y, -z, -x'
'x, -y, -z'
'z, y, x'
'y, x, z'
'x, z, y'
'z, x, y'
'y, z, x'
'x, y, z'
'z+1/2, y+1/2, -x+1/2'
'y+1/2, x+1/2, -z+1/2'
'x+1/2, z+1/2, -y+1/2'
'z+1/2, x+1/2, -y+1/2'
'y+1/2, z+1/2, -x+1/2'
'x+1/2, y+1/2, -z+1/2'
'z+1/2, -y+1/2, x+1/2'
'y+1/2, -x+1/2, z+1/2'
'x+1/2, -z+1/2, y+1/2'
'z+1/2, -x+1/2, y+1/2'
'y+1/2, -z+1/2, x+1/2'
'x+1/2, -y+1/2, z+1/2'
'-z+1/2, y+1/2, x+1/2'
'-y+1/2, x+1/2, z+1/2'
'-x+1/2, z+1/2, y+1/2'
'-z+1/2, x+1/2, y+1/2'
'-y+1/2, z+1/2, x+1/2'
'-x+1/2, y+1/2, z+1/2'
'-z+1/2, -y+1/2, -x+1/2'
'-y+1/2, -x+1/2, -z+1/2'
'-x+1/2, -z+1/2, -y+1/2'
'-z+1/2, -x+1/2, -y+1/2'
'-y+1/2, -z+1/2, -x+1/2'
'-x+1/2, -y+1/2, -z+1/2'
'-z+1/2, -y+1/2, x+1/2'
'-y+1/2, -x+1/2, z+1/2'
'-x+1/2, -z+1/2, y+1/2'
'-z+1/2, -x+1/2, y+1/2'
'-y+1/2, -z+1/2, x+1/2'
'-x+1/2, -y+1/2, z+1/2'
'-z+1/2, y+1/2, -x+1/2'
'-y+1/2, x+1/2, -z+1/2'
'-x+1/2, z+1/2, -y+1/2'
'-z+1/2, x+1/2, -y+1/2'
'-y+1/2, z+1/2, -x+1/2'
'-x+1/2, y+1/2, -z+1/2'
'z+1/2, -y+1/2, -x+1/2'
'y+1/2, -x+1/2, -z+1/2'
'x+1/2, -z+1/2, -y+1/2'
'z+1/2, -x+1/2, -y+1/2'
'y+1/2, -z+1/2, -x+1/2'
'x+1/2, -y+1/2, -z+1/2'
'z+1/2, y+1/2, x+1/2'
'y+1/2, x+1/2, z+1/2'
'x+1/2, z+1/2, y+1/2'
'z+1/2, x+1/2, y+1/2'
'y+1/2, z+1/2, x+1/2'
'x+1/2, y+1/2, z+1/2'

loop_
_atom_site_label
_atom_site_type_symbol
_atom_site_wyckoff_letter
_atom_site_occupancy
_atom_site_fract_x
_atom_site_fract_y
_atom_site_fract_z
   Fe   Fe    a    1.0     0.0      0.0      0.0

