data_New_Crystal_4390
_audit_creation_method         'generated by RubyCrystal 1.0.0'
_cell_length_a                   5.631
_cell_length_b                   5.631
_cell_length_c                   4.808
_cell_angle_alpha                 90.0
_cell_angle_beta                  90.0
_cell_angle_gamma                120.0

_symmetry_space_group_name_H-M 'P 63 m c'
_symmetry_Int_Tables_number    186
loop_
_symmetry_equiv_pos_as_xyz
'-x, -x+y, z+1/2'
'x-y, -y, z+1/2'
'y, x, z+1/2'
'x-y, x, z+1/2'
'y, -x+y, z+1/2'
'-x, -y, z+1/2'
'x, x-y, z'
'-x+y, y, z'
'-y, -x, z'
'-x+y, -x, z'
'-y, x-y, z'
'x, y, z'

loop_
_atom_site_label
_atom_site_type_symbol
_atom_site_wyckoff_letter
_atom_site_occupancy
_atom_site_fract_x
_atom_site_fract_y
_atom_site_fract_z
   Ba   Ba    b    1.0  0.3333   0.6667     0.25
   Ni   Ni    a    1.0     0.0      0.0   0.0275
    O    O    c    1.0    0.15    -0.15   -0.275

