data_New_Crystal_85616
_audit_creation_method         'generated by RubyCrystal 1.0.0'
_cell_length_a                    4.83
_cell_length_b                    4.83
_cell_length_c                   10.56
_cell_angle_alpha                 90.0
_cell_angle_beta                  90.0
_cell_angle_gamma                 90.0

_symmetry_space_group_name_H-M 'I 41/a'
_symmetry_Int_Tables_number    88
loop_
_symmetry_equiv_pos_as_xyz
'-y+3/4, x+3/4, -z+3/4'
'y+1/4, -x+3/4, -z+3/4'
'x, y+1/2, -z'
'-x, -y, -z'
'y+1/4, -x+1/4, z+1/4'
'-y+3/4, x+1/4, z+1/4'
'-x, -y+1/2, z'
'x, y, z'
'-y+1/4, x+1/4, -z+1/4'
'y+3/4, -x+1/4, -z+1/4'
'x+1/2, y, -z+1/2'
'-x+1/2, -y+1/2, -z+1/2'
'y+3/4, -x+3/4, z+3/4'
'-y+1/4, x+3/4, z+3/4'
'-x+1/2, -y, z+1/2'
'x+1/2, y+1/2, z+1/2'

loop_
_atom_site_label
_atom_site_type_symbol
_atom_site_wyckoff_letter
_atom_site_occupancy
_atom_site_fract_x
_atom_site_fract_y
_atom_site_fract_z
   Al   Al    b    1.0     0.0     0.25    0.625
   Na   Na    a    1.0     0.0     0.25    0.125
    H    H    f    1.0  0.2626   0.5967     0.04

