data_New_Crystal_12301
_audit_creation_method         'generated by RubyCrystal 1.0.0'
_cell_length_a                  2.8166
_cell_length_b                  2.8166
_cell_length_c                  14.052
_cell_angle_alpha                 90.0
_cell_angle_beta                  90.0
_cell_angle_gamma                120.0

_symmetry_space_group_name_H-M 'R -3 m'
_symmetry_Int_Tables_number    166
loop_
_symmetry_equiv_pos_as_xyz
'x-y, -y, -z'
'-x, -x+y, -z'
'y, x, -z'
'x-y, x, -z'
'y, -x+y, -z'
'-x, -y, -z'
'-x+y, y, z'
'x, x-y, z'
'-y, -x, z'
'-x+y, -x, z'
'-y, x-y, z'
'x, y, z'
'x-y+2/3, -y+1/3, -z+1/3'
'-x+2/3, -x+y+1/3, -z+1/3'
'y+2/3, x+1/3, -z+1/3'
'x-y+2/3, x+1/3, -z+1/3'
'y+2/3, -x+y+1/3, -z+1/3'
'-x+2/3, -y+1/3, -z+1/3'
'-x+y+2/3, y+1/3, z+1/3'
'x+2/3, x-y+1/3, z+1/3'
'-y+2/3, -x+1/3, z+1/3'
'-x+y+2/3, -x+1/3, z+1/3'
'-y+2/3, x-y+1/3, z+1/3'
'x+2/3, y+1/3, z+1/3'
'x-y+1/3, -y+2/3, -z+2/3'
'-x+1/3, -x+y+2/3, -z+2/3'
'y+1/3, x+2/3, -z+2/3'
'x-y+1/3, x+2/3, -z+2/3'
'y+1/3, -x+y+2/3, -z+2/3'
'-x+1/3, -y+2/3, -z+2/3'
'-x+y+1/3, y+2/3, z+2/3'
'x+1/3, x-y+2/3, z+2/3'
'-y+1/3, -x+2/3, z+2/3'
'-x+y+1/3, -x+2/3, z+2/3'
'-y+1/3, x-y+2/3, z+2/3'
'x+1/3, y+2/3, z+2/3'

loop_
_atom_site_label
_atom_site_type_symbol
_atom_site_wyckoff_letter
_atom_site_occupancy
_atom_site_fract_x
_atom_site_fract_y
_atom_site_fract_z
   Li   Li    b    1.0     0.0      0.0      0.5
   Co   Co    a    1.0     0.0      0.0      0.0
    O    O    c    1.0     0.0      0.0     0.26

