data_New_Crystal_3646
_audit_creation_method         'generated by RubyCrystal 1.0.0'
_cell_length_a                  4.6966
_cell_length_b                  4.6966
_cell_length_c                  3.3091
_cell_angle_alpha                 90.0
_cell_angle_beta                  90.0
_cell_angle_gamma                 90.0

_symmetry_space_group_name_H-M 'P 42/m n m'
_symmetry_Int_Tables_number    136
loop_
_symmetry_equiv_pos_as_xyz
'-y+1/2, x+1/2, -z+1/2'
'y+1/2, -x+1/2, -z+1/2'
'y, x, -z'
'-y, -x, -z'
'y+1/2, -x+1/2, z+1/2'
'-y+1/2, x+1/2, z+1/2'
'-y, -x, z'
'y, x, z'
'x+1/2, -y+1/2, -z+1/2'
'-x+1/2, y+1/2, -z+1/2'
'x, y, -z'
'-x, -y, -z'
'-x+1/2, y+1/2, z+1/2'
'x+1/2, -y+1/2, z+1/2'
'-x, -y, z'
'x, y, z'

loop_
_atom_site_label
_atom_site_type_symbol
_atom_site_wyckoff_letter
_atom_site_occupancy
_atom_site_fract_x
_atom_site_fract_y
_atom_site_fract_z
   Fe   Fe    a    1.0     0.0      0.0      0.0
    F    F    f    1.0     0.3      0.3      0.0

