data_New_Crystal_19127
_audit_creation_method         'generated by RubyCrystal 1.0.0'
_cell_length_a                   4.787
_cell_length_b                  10.086
_cell_length_c                   5.939
_cell_angle_alpha                 90.0
_cell_angle_beta                  90.0
_cell_angle_gamma                 90.0

_symmetry_space_group_name_H-M 'P b n m'
_symmetry_Int_Tables_number    62
loop_
_symmetry_equiv_pos_as_xyz
'-x+1/2, y+1/2, z'
'x, y, -z+1/2'
'x+1/2, -y+1/2, z+1/2'
'-x, -y, -z'
'x+1/2, -y+1/2, -z'
'-x, -y, z+1/2'
'-x+1/2, y+1/2, -z+1/2'
'x, y, z'

loop_
_atom_site_label
_atom_site_type_symbol
_atom_site_wyckoff_letter
_atom_site_occupancy
_atom_site_fract_x
_atom_site_fract_y
_atom_site_fract_z
   Li   Li    a    1.0     0.0      0.0      0.0
   Fe   Fe    c    1.0 -0.0278   0.2778     0.25
    P    P    c    1.0  0.4167   0.0972     0.25
    O    O    c    1.0   -0.25   0.0556     0.25
    O    O    c    1.0    0.25   0.4444     0.25
    O    O    d    1.0  0.1944   0.1667   0.0278

