data_New_Crystal_7526
_audit_creation_method         'generated by RubyCrystal 1.0.0'
_cell_length_a                   8.362
_cell_length_b                   8.573
_cell_length_c                    8.69
_cell_angle_alpha                 90.0
_cell_angle_beta                  90.0
_cell_angle_gamma                 90.0

_symmetry_space_group_name_H-M 'P 21 21 21'
_symmetry_Int_Tables_number    19
loop_
_symmetry_equiv_pos_as_xyz
'-x, y+1/2, -z+1/2'
'x+1/2, -y+1/2, -z'
'-x+1/2, -y, z+1/2'
'x, y, z'

loop_
_atom_site_label
_atom_site_type_symbol
_atom_site_wyckoff_letter
_atom_site_occupancy
_atom_site_fract_x
_atom_site_fract_y
_atom_site_fract_z
   Fe   Fe    a    1.0  0.6288   0.3568   0.8412
    P    P    a    1.0  0.2014   0.1931   0.5605
    P    P    a    1.0  0.3127   0.4789   0.6895
    P    P    a    1.0  0.0287   0.6792   0.6836
    O    O    a    1.0  0.1588   0.1389   0.4039
    O    O    a    1.0  0.3108   0.0939   0.6551
    O    O    a    1.0  0.0389   0.2294   0.6536
    O    O    a    1.0  0.2727   0.3646   0.5476
    O    O    a    1.0  0.3777   0.3829   0.8187
    O    O    a    1.0  0.4099   0.6125   0.6325
    O    O    a    1.0  0.1394   0.5368   0.7362
    O    O    a    1.0 -0.1039   0.6247   0.5835
    O    O    a    1.0  0.1313   0.8072    0.622
   Li   Li    a    1.0  0.3476    0.132   0.8854

