#\#CIF1.1
##########################################################################
#               Crystallographic Information Format file 
#               Produced by PyCifRW module
# 
#  This is a CIF file.  CIF has been adopted by the International
#  Union of Crystallography as the standard for data archiving and 
#  transmission.
#
#  For information on this file format, follow the CIF links at
#  http://www.iucr.org
##########################################################################

data_CaF2
_symmetry_space_group_name_H-M          'P 1'
_cell_length_a                          3.9004375718
_cell_length_b                          3.90043757144
_cell_length_c                          3.900437571
_cell_angle_alpha                       59.9999999952
_cell_angle_beta                        59.9999999983
_cell_angle_gamma                       59.9999999958
_chemical_name_systematic               'Generated by pymatgen'
_symmetry_Int_Tables_number             1
_chemical_formula_structural            CaF2
_chemical_formula_sum                   'Ca1 F2'
_cell_volume                            41.9589870992
_cell_formula_units_Z                   1
loop_
  _symmetry_equiv_pos_site_id
  _symmetry_equiv_pos_as_xyz
   1  'x, y, z'
 
loop_
  _atom_site_type_symbol
  _atom_site_symmetry_multiplicity
  _atom_site_fract_x
  _atom_site_fract_y
  _atom_site_fract_z
  _atom_site_attached_hydrogens
  _atom_site_B_iso_or_equiv
  _atom_site_label
  _atom_site_occupancy
   F  1  0.750000632981  0.749999856894  0.750000688996  0  .  F1  1
   F  1  0.250000559885  0.249998905625  0.250000578557  0  .  F2  1
   Ca  1  0.0  0.0  0.0  0  .  Ca3  1
 
