#\#CIF1.1
##########################################################################
#               Crystallographic Information Format file 
#               Produced by PyCifRW module
# 
#  This is a CIF file.  CIF has been adopted by the International
#  Union of Crystallography as the standard for data archiving and 
#  transmission.
#
#  For information on this file format, follow the CIF links at
#  http://www.iucr.org
##########################################################################

data_SrTiO3
_symmetry_space_group_name_H-M          'P 1'
_cell_length_a                          5.56772840391
_cell_length_b                          5.56772840352
_cell_length_c                          5.57946068853
_cell_angle_alpha                       119.9304655
_cell_angle_beta                        119.930465496
_cell_angle_gamma                       89.999999995
_chemical_name_systematic               'Generated by pymatgen'
_symmetry_Int_Tables_number             1
_chemical_formula_structural            SrTiO3
_chemical_formula_sum                   'Sr2 Ti2 O6'
_cell_volume                            122.558561716
_cell_formula_units_Z                   2
loop_
  _symmetry_equiv_pos_site_id
  _symmetry_equiv_pos_as_xyz
   1  'x, y, z'
 
loop_
  _atom_site_type_symbol
  _atom_site_symmetry_multiplicity
  _atom_site_fract_x
  _atom_site_fract_y
  _atom_site_fract_z
  _atom_site_attached_hydrogens
  _atom_site_B_iso_or_equiv
  _atom_site_label
  _atom_site_occupancy
   O  1  0.770933571486  0.270933138163  5.83424238254e-07  0  .  O1  1
   O  1  0.729067543429  0.77093399043  4.92599263824e-07  0  .  O2  1
   O  1  0.270933180154  0.22906771209  3.54250614842e-07  0  .  O3  1
   O  1  0.229066422072  0.729066367709  -1.19662363063e-06  0  .  O4  1
   O  1  0.250000661713  0.249999783101  0.500001024854  0  .  O5  1
   O  1  0.749999987608  0.750000635372  0.500000931998  0  .  O6  1
   Ti  1  0.499999325895  0.500000852271  -9.28555581869e-08  0  .  Ti7  1
   Ti  1  0.0  0.0  0.0  0  .  Ti8  1
   Sr  1  0.74999981577  0.249999784104  0.500000512464  0  .  Sr9  1
   Sr  1  0.25000083355  0.750000634368  0.500001444388  0  .  Sr10  1
 
