#\#CIF1.1
##########################################################################
#               Crystallographic Information Format file 
#               Produced by PyCifRW module
# 
#  This is a CIF file.  CIF has been adopted by the International
#  Union of Crystallography as the standard for data archiving and 
#  transmission.
#
#  For information on this file format, follow the CIF links at
#  http://www.iucr.org
##########################################################################

data_CuAu
_symmetry_space_group_name_H-M          'P 1'
_cell_length_a                          3.661910365
_cell_length_b                          4.050544848
_cell_length_c                          4.050544848
_cell_angle_alpha                       90.0
_cell_angle_beta                        90.0
_cell_angle_gamma                       90.0
_chemical_name_systematic               'Generated by pymatgen'
_symmetry_Int_Tables_number             1
_chemical_formula_structural            CuAu
_chemical_formula_sum                   'Cu2 Au2'
_cell_volume                            60.0806468437
_cell_formula_units_Z                   2
loop_
  _symmetry_equiv_pos_site_id
  _symmetry_equiv_pos_as_xyz
   1  'x, y, z'
 
loop_
  _atom_site_type_symbol
  _atom_site_symmetry_multiplicity
  _atom_site_fract_x
  _atom_site_fract_y
  _atom_site_fract_z
  _atom_site_attached_hydrogens
  _atom_site_B_iso_or_equiv
  _atom_site_label
  _atom_site_occupancy
   Cu  1  0.50000131557  0.499999401562  0.0  0  .  Cu1  1
   Cu  1  0.50000131557  0.0  0.499999401562  0  .  Cu2  1
   Au  1  0.0  0.499999401562  0.499999401562  0  .  Au3  1
   Au  1  0.0  0.0  0.0  0  .  Au4  1
 
