#\#CIF1.1
##########################################################################
#               Crystallographic Information Format file 
#               Produced by PyCifRW module
# 
#  This is a CIF file.  CIF has been adopted by the International
#  Union of Crystallography as the standard for data archiving and 
#  transmission.
#
#  For information on this file format, follow the CIF links at
#  http://www.iucr.org
##########################################################################

data_TiS2
_symmetry_space_group_name_H-M          'P 1'
_cell_length_a                          6.94298811632
_cell_length_b                          6.94298811674
_cell_length_c                          6.942988117
_cell_angle_alpha                       60.0000000035
_cell_angle_beta                        60.0000000015
_cell_angle_gamma                       60.000000003
_chemical_name_systematic               'Generated by pymatgen'
_symmetry_Int_Tables_number             1
_chemical_formula_structural            TiS2
_chemical_formula_sum                   'Ti4 S8'
_cell_volume                            236.659677308
_cell_formula_units_Z                   4
loop_
  _symmetry_equiv_pos_site_id
  _symmetry_equiv_pos_as_xyz
   1  'x, y, z'
 
loop_
  _atom_site_type_symbol
  _atom_site_symmetry_multiplicity
  _atom_site_fract_x
  _atom_site_fract_y
  _atom_site_fract_z
  _atom_site_attached_hydrogens
  _atom_site_B_iso_or_equiv
  _atom_site_label
  _atom_site_occupancy
   S  1  0.74779801007  0.747797723216  0.747797376466  0  .  S1  1
   S  1  0.252201406283  0.252202971977  0.743393638454  0  .  S2  1
   S  1  0.252201990522  0.743393008859  0.252202343712  0  .  S3  1
   S  1  0.743393195882  0.252202971977  0.252201759473  0  .  S4  1
   S  1  0.252201406283  0.252202971977  0.252203110322  0  .  S5  1
   S  1  0.74779801007  0.747797723216  0.256606848335  0  .  S6  1
   S  1  0.747797425831  0.256607686334  0.747798143076  0  .  S7  1
   S  1  0.256607883589  0.747797723216  0.747797895757  0  .  S8  1
   Ti  1  0.499999660142  0.0  0.500000013296  0  .  Ti9  1
   Ti  1  -4.89523683256e-07  0.499999465595  0.500000355331  0  .  Ti10  1
   Ti  1  0.500000833736  0.499999465595  -7.34140182812e-07  0  .  Ti11  1
   Ti  1  0.500000833736  0.499999465595  0.500000121615  0  .  Ti12  1
 
