#\#CIF1.1
##########################################################################
#               Crystallographic Information Format file 
#               Produced by PyCifRW module
# 
#  This is a CIF file.  CIF has been adopted by the International
#  Union of Crystallography as the standard for data archiving and 
#  transmission.
#
#  For information on this file format, follow the CIF links at
#  http://www.iucr.org
##########################################################################

data_Mn3O4
_symmetry_space_group_name_H-M          'P 1'
_cell_length_a                          5.83881680564
_cell_length_b                          5.83881680581
_cell_length_c                          6.33107098788
_cell_angle_alpha                       117.459657144
_cell_angle_beta                        117.459657151
_cell_angle_gamma                       90.0000000017
_chemical_name_systematic               'Generated by pymatgen'
_symmetry_Int_Tables_number             1
_chemical_formula_structural            Mn3O4
_chemical_formula_sum                   'Mn6 O8'
_cell_volume                            163.628367446
_cell_formula_units_Z                   2
loop_
  _symmetry_equiv_pos_site_id
  _symmetry_equiv_pos_as_xyz
   1  'x, y, z'
 
loop_
  _atom_site_type_symbol
  _atom_site_symmetry_multiplicity
  _atom_site_fract_x
  _atom_site_fract_y
  _atom_site_fract_z
  _atom_site_attached_hydrogens
  _atom_site_B_iso_or_equiv
  _atom_site_label
  _atom_site_occupancy
   O  1  0.754753705145  0.781120311818  0.509506624209  0  .  O1  1
   O  1  0.771614976733  0.245247806858  0.990495001948  0  .  O2  1
   O  1  0.218879786754  0.245247806966  0.990494791379  0  .  O3  1
   O  1  0.245246963592  0.218879644357  0.490493595898  0  .  O4  1
   O  1  0.245246355379  0.771613516984  0.490492987145  0  .  O5  1
   O  1  0.228386233776  0.754754153933  0.0095063017016  0  .  O6  1
   O  1  0.754752383339  0.228386439612  0.509506411878  0  .  O7  1
   O  1  0.781119492926  0.754754153436  0.00950727000858  0  .  O8  1
   Mn  1  0.0  0.0  0.0  0  .  Mn9  1
   Mn  1  0.499999578754  1.42640071155e-07  0.499999468247  0  .  Mn10  1
   Mn  1  1.50394891727e-07  1.41905323179e-07  0.500000900394  0  .  Mn11  1
   Mn  1  7.55614610441e-07  0.499999835447  6.41806679719e-07  0  .  Mn12  1
   Mn  1  0.625000756722  0.374999446889  0.249999675731  0  .  Mn13  1
   Mn  1  0.374999912016  0.625000509285  0.750000544377  0  .  Mn14  1
 
