#\#CIF1.1
##########################################################################
#               Crystallographic Information Format file 
#               Produced by PyCifRW module
# 
#  This is a CIF file.  CIF has been adopted by the International
#  Union of Crystallography as the standard for data archiving and 
#  transmission.
#
#  For information on this file format, follow the CIF links at
#  http://www.iucr.org
##########################################################################

data_Fe3O4
_symmetry_space_group_name_H-M          'P 1'
_cell_length_a                          2.838998044
_cell_length_b                          5.02800695655
_cell_length_c                          10.008031949
_cell_angle_alpha                       90.0
_cell_angle_beta                        90.0
_cell_angle_gamma                       106.398624614
_chemical_name_systematic               'Generated by pymatgen'
_symmetry_Int_Tables_number             1
_chemical_formula_structural            Fe3O4
_chemical_formula_sum                   'Fe6 O8'
_cell_volume                            137.048247208
_cell_formula_units_Z                   2
loop_
  _symmetry_equiv_pos_site_id
  _symmetry_equiv_pos_as_xyz
   1  'x, y, z'
 
loop_
  _atom_site_type_symbol
  _atom_site_symmetry_multiplicity
  _atom_site_fract_x
  _atom_site_fract_y
  _atom_site_fract_z
  _atom_site_attached_hydrogens
  _atom_site_B_iso_or_equiv
  _atom_site_label
  _atom_site_occupancy
   O  1  0.500000344488  0.0  0.500000402227  0  .  O1  1
   O  1  0.500000344488  0.0  0.0  0  .  O2  1
   O  1  0.227333160267  0.454666320533  0.116142714764  0  .  O3  1
   O  1  0.772667037646  0.545333386317  0.883857090493  0  .  O4  1
   O  1  0.772667037646  0.545333386317  0.616143116991  0  .  O5  1
   O  1  0.227333160267  0.454666320533  0.383857687463  0  .  O6  1
   O  1  0.0228217378215  0.0456434756431  0.749999604143  0  .  O7  1
   O  1  0.977178460091  0.954356231207  0.250000201113  0  .  O8  1
   Fe  1  0.12609694301  0.252193886019  0.575989368277  0  .  Fe9  1
   Fe  1  0.873903254903  0.747805820831  0.424010436979  0  .  Fe10  1
   Fe  1  0.873903254903  0.747805820831  0.07598896605  0  .  Fe11  1
   Fe  1  0.12609694301  0.252193886019  0.924010839206  0  .  Fe12  1
   Fe  1  0.634099822744  0.268198956512  0.250000201113  0  .  Fe13  1
   Fe  1  0.365900375169  0.731800750338  0.749999604143  0  .  Fe14  1
 
