#\#CIF1.1
##########################################################################
#               Crystallographic Information Format file 
#               Produced by PyCifRW module
# 
#  This is a CIF file.  CIF has been adopted by the International
#  Union of Crystallography as the standard for data archiving and 
#  transmission.
#
#  For information on this file format, follow the CIF links at
#  http://www.iucr.org
##########################################################################

data_LiFePO4
_symmetry_space_group_name_H-M          'P 1'
_cell_length_a                          5.04808256754
_cell_length_b                          5.04808256755
_cell_length_c                          6.08495072
_cell_angle_alpha                       90.0
_cell_angle_beta                        90.0
_cell_angle_gamma                       111.526123436
_chemical_name_systematic               'Generated by pymatgen'
_symmetry_Int_Tables_number             1
_chemical_formula_structural            LiFePO4
_chemical_formula_sum                   'Li2 Fe2 P2 O8'
_cell_volume                            144.248005067
_cell_formula_units_Z                   2
loop_
  _symmetry_equiv_pos_site_id
  _symmetry_equiv_pos_as_xyz
   1  'x, y, z'
 
loop_
  _atom_site_type_symbol
  _atom_site_symmetry_multiplicity
  _atom_site_fract_x
  _atom_site_fract_y
  _atom_site_fract_z
  _atom_site_attached_hydrogens
  _atom_site_B_iso_or_equiv
  _atom_site_label
  _atom_site_occupancy
   Li  1  0.664292054744  0.33570823033  0.749999500407  0  .  Li1  1
   Li  1  0.335707742097  0.664292406532  0.250000381268  0  .  Li2  1
   O  1  0.755799209209  0.244201644052  0.45734306292  0  .  O3  1
   O  1  0.246943669924  0.314989480033  0.749999500407  0  .  O4  1
   O  1  0.753058101569  0.685011139835  0.250000381268  0  .  O5  1
   O  1  0.314989930031  0.246942429663  0.250000381268  0  .  O6  1
   O  1  0.244200587633  0.755798992811  0.957342182058  0  .  O7  1
   O  1  0.685011044316  0.753056060791  0.749999500407  0  .  O8  1
   O  1  0.244200587633  0.755798992811  0.542656818756  0  .  O9  1
   O  1  0.755799209209  0.244201644052  0.0426576996173  0  .  O10  1
   P  1  0.350163466424  0.649835728189  0.749999500407  0  .  P11  1
   P  1  0.649836330418  0.350164908674  0.250000381268  0  .  P12  1
   Fe  1  0.0  0.0  0.0  0  .  Fe13  1
   Fe  1  0.0  0.0  0.500000762537  0  .  Fe14  1
 
