#\#CIF1.1
##########################################################################
#               Crystallographic Information Format file 
#               Produced by PyCifRW module
# 
#  This is a CIF file.  CIF has been adopted by the International
#  Union of Crystallography as the standard for data archiving and 
#  transmission.
#
#  For information on this file format, follow the CIF links at
#  http://www.iucr.org
##########################################################################

data_Li2O2
_symmetry_space_group_name_H-M          'P 1'
_cell_length_a                          3.18036198
_cell_length_b                          3.18036198008
_cell_length_c                          7.703521866
_cell_angle_alpha                       90.0
_cell_angle_beta                        90.0
_cell_angle_gamma                       119.999999999
_chemical_name_systematic               'Generated by pymatgen'
_symmetry_Int_Tables_number             1
_chemical_formula_structural            Li2O2
_chemical_formula_sum                   'Li4 O4'
_cell_volume                            67.4796866654
_cell_formula_units_Z                   2
loop_
  _symmetry_equiv_pos_site_id
  _symmetry_equiv_pos_as_xyz
   1  'x, y, z'
 
loop_
  _atom_site_type_symbol
  _atom_site_symmetry_multiplicity
  _atom_site_fract_x
  _atom_site_fract_y
  _atom_site_fract_z
  _atom_site_attached_hydrogens
  _atom_site_B_iso_or_equiv
  _atom_site_label
  _atom_site_occupancy
   Li  1  0.0  0.0  0.0  0  .  Li1  1
   Li  1  0.0  0.0  0.499999878887  0  .  Li2  1
   Li  1  0.333332816803  0.666665633606  0.249999939443  0  .  Li3  1
   Li  1  0.666666097116  0.333332816803  0.74999981833  0  .  Li4  1
   O  1  0.333332816803  0.666665633606  0.649310807058  0  .  O5  1
   O  1  0.666666097116  0.333332816803  0.149309630064  0  .  O6  1
   O  1  0.666666097116  0.333332816803  0.350690248823  0  .  O7  1
   O  1  0.333332816803  0.666665633606  0.850690127709  0  .  O8  1
 
