#\#CIF1.1
##########################################################################
#               Crystallographic Information Format file 
#               Produced by PyCifRW module
# 
#  This is a CIF file.  CIF has been adopted by the International
#  Union of Crystallography as the standard for data archiving and 
#  transmission.
#
#  For information on this file format, follow the CIF links at
#  http://www.iucr.org
##########################################################################

data_LiMnO2
_symmetry_space_group_name_H-M          'P 1'
_cell_length_a                          2.826445907
_cell_length_b                          4.765654206
_cell_length_c                          5.763822069
_cell_angle_alpha                       90.0
_cell_angle_beta                        90.0
_cell_angle_gamma                       90.0
_chemical_name_systematic               'Generated by pymatgen'
_symmetry_Int_Tables_number             1
_chemical_formula_structural            LiMnO2
_chemical_formula_sum                   'Li2 Mn2 O4'
_cell_volume                            77.6378983794
_cell_formula_units_Z                   2
loop_
  _symmetry_equiv_pos_site_id
  _symmetry_equiv_pos_as_xyz
   1  'x, y, z'
 
loop_
  _atom_site_type_symbol
  _atom_site_symmetry_multiplicity
  _atom_site_fract_x
  _atom_site_fract_y
  _atom_site_fract_z
  _atom_site_attached_hydrogens
  _atom_site_B_iso_or_equiv
  _atom_site_label
  _atom_site_occupancy
   Li  1  0.749998432572  0.749999862663  0.87739870167  0  .  Li1  1
   Li  1  0.249999477524  0.249999254772  0.122600939366  0  .  Li2  1
   O  1  0.749998432572  0.249999254772  0.859990114313  0  .  O3  1
   O  1  0.249999477524  0.749999862663  0.5993175984  0  .  O4  1
   O  1  0.749998432572  0.249999254772  0.400682042636  0  .  O5  1
   O  1  0.249999477524  0.749999862663  0.140009526724  0  .  O6  1
   Mn  1  0.749998432572  0.749999862663  0.36426523492  0  .  Mn7  1
   Mn  1  0.249999477524  0.249999254772  0.635734406117  0  .  Mn8  1
 
