#\#CIF1.1
##########################################################################
#               Crystallographic Information Format file 
#               Produced by PyCifRW module
# 
#  This is a CIF file.  CIF has been adopted by the International
#  Union of Crystallography as the standard for data archiving and 
#  transmission.
#
#  For information on this file format, follow the CIF links at
#  http://www.iucr.org
##########################################################################

data_Al2O3
_symmetry_space_group_name_H-M          'P 1'
_cell_length_a                          4.846932885
_cell_length_b                          4.985404262
_cell_length_c                          7.089941228
_cell_angle_alpha                       90.0
_cell_angle_beta                        90.0
_cell_angle_gamma                       90.0
_chemical_name_systematic               'Generated by pymatgen'
_symmetry_Int_Tables_number             1
_chemical_formula_structural            Al2O3
_chemical_formula_sum                   'Al8 O12'
_cell_volume                            171.320771663
_cell_formula_units_Z                   4
loop_
  _symmetry_equiv_pos_site_id
  _symmetry_equiv_pos_as_xyz
   1  'x, y, z'
 
loop_
  _atom_site_type_symbol
  _atom_site_symmetry_multiplicity
  _atom_site_fract_x
  _atom_site_fract_y
  _atom_site_fract_z
  _atom_site_attached_hydrogens
  _atom_site_B_iso_or_equiv
  _atom_site_label
  _atom_site_occupancy
   O  1  0.107020256378  0.101975682068  0.65400118998  0  .  O1  1
   O  1  0.107020256378  0.398023890485  0.345998636817  0  .  O2  1
   O  1  0.392978414431  0.601977260475  0.845998550215  0  .  O3  1
   O  1  0.392978414431  0.898023463037  0.154001276582  0  .  O4  1
   O  1  0.8929791484  0.898023463037  0.345998636817  0  .  O5  1
   O  1  0.8929791484  0.601977260475  0.65400118998  0  .  O6  1
   O  1  0.607020990347  0.398023890485  0.154001276582  0  .  O7  1
   O  1  0.607020990347  0.101975682068  0.845998550215  0  .  O8  1
   O  1  0.0494044389888  0.249999786276  0.0  0  .  O9  1
   O  1  0.45059629498  0.749999358828  0.499999913398  0  .  O10  1
   O  1  0.549405172958  0.249999786276  0.499999913398  0  .  O11  1
   O  1  0.950594965789  0.749999358828  0.0  0  .  O12  1
   Al  1  0.252153274864  0.0305130721614  0.390395337703  0  .  Al13  1
   Al  1  0.252153274864  0.469486500391  0.609605899543  0  .  Al14  1
   Al  1  0.247847459105  0.530514650569  0.109605986144  0  .  Al15  1
   Al  1  0.247847459105  0.969486072943  0.890395251102  0  .  Al16  1
   Al  1  0.747848193074  0.969486072943  0.609605899543  0  .  Al17  1
   Al  1  0.747848193074  0.530514650569  0.390395337703  0  .  Al18  1
   Al  1  0.752151945673  0.469486500391  0.890395251102  0  .  Al19  1
   Al  1  0.752151945673  0.0305130721614  0.109605986144  0  .  Al20  1
 
